13
acq.gzmat
C          0.00000        0.00000        0.00000
H          1.09300        0.00000        0.00000
N         -0.47961        0.00000       -1.41207
H         -0.08883       -0.81270       -1.89023
H         -1.49642       -0.04712       -1.41191
C         -0.49584        1.26211        0.72868
H         -0.17449        2.16062        0.19673
H         -1.58680        1.26519        0.78662
H         -0.09473        1.29850        1.74423
C         -0.39425       -1.28861        0.74398
O         -1.42894       -1.89647        0.60555
O          0.47616       -1.74287        1.58826
H         -0.01508       -2.52502        1.89141
